*
*
*
*                       LINUX           Sat Oct 20 15:07:22 2012
*
*
*
*  PROGRAM  advgen
*
*  HSPICE LIBRARY
*
*
*

*
.SUBCKT sram_row VDD! GND! WL BL0 BL1 BL2 BL3 BLB0 BLB1 BLB2 BLB3
*
*
*  caps2d version: 10
*
*
*       TRANSISTOR CARDS
*
*
MI1/avD1_1	I1/avC3#6	WL#3	BL0#1	GND!#4
+ nmos1v#20ivpcell#20gpdk090	L=0.1U	W=0.12U
+ AD=0.0438P	AS=0.0696P	PD=0.65U	PS=1.16U
+ simW=1.2e-07 fw=1.2e-07
MI1/avD1_2	GND!#19	I1/avC1	I1/avC3#6	GND!#4
+ nmos1v#20ivpcell#20gpdk090	L=0.1U	W=0.27U
+ AD=0.0432P	AS=0.0438P	PD=0.59U	PS=0.65U
+ simW=2.7e-07 fw=2.7e-07
MI1/avD1_3	I1/avC1#8	I1/avC3#10	GND!#19	GND!#4
+ nmos1v#20ivpcell#20gpdk090	L=0.1U	W=0.27U
+ AD=0.0438P	AS=0.0432P	PD=0.65U	PS=0.59U
+ simW=2.7e-07 fw=2.7e-07
MI1/avD1_4	BLB0#1	WL#6	I1/avC1#8	GND!#4
+ nmos1v#20ivpcell#20gpdk090	L=0.1U	W=0.12U
+ AD=0.0696P	AS=0.0438P	PD=1.16U	PS=0.65U
+ simW=1.2e-07 fw=1.2e-07
MI4/avD1_1	I4/avC3#6	WL#21	BL3#1	GND!#4
+ nmos1v#20ivpcell#20gpdk090	L=0.1U	W=0.12U
+ AD=0.0438P	AS=0.0696P	PD=0.65U	PS=1.16U
+ simW=1.2e-07 fw=1.2e-07
MI4/avD1_2	GND!#1	I4/avC1	I4/avC3#6	GND!#4
+ nmos1v#20ivpcell#20gpdk090	L=0.1U	W=0.27U
+ AD=0.0432P	AS=0.0438P	PD=0.59U	PS=0.65U
+ simW=2.7e-07 fw=2.7e-07
MI4/avD1_3	I4/avC1#8	I4/avC3#10	GND!#1	GND!#4
+ nmos1v#20ivpcell#20gpdk090	L=0.1U	W=0.27U
+ AD=0.0438P	AS=0.0432P	PD=0.65U	PS=0.59U
+ simW=2.7e-07 fw=2.7e-07
MI4/avD1_4	BLB3#1	WL#22	I4/avC1#8	GND!#4
+ nmos1v#20ivpcell#20gpdk090	L=0.1U	W=0.12U
+ AD=0.0696P	AS=0.0438P	PD=1.16U	PS=0.65U
+ simW=1.2e-07 fw=1.2e-07
MI3/avD1_1	I3/avC3#6	WL#15	BL2#1	GND!#4
+ nmos1v#20ivpcell#20gpdk090	L=0.1U	W=0.12U
+ AD=0.0438P	AS=0.0696P	PD=0.65U	PS=1.16U
+ simW=1.2e-07 fw=1.2e-07
MI3/avD1_2	GND!#13	I3/avC1	I3/avC3#6	GND!#4
+ nmos1v#20ivpcell#20gpdk090	L=0.1U	W=0.27U
+ AD=0.0432P	AS=0.0438P	PD=0.59U	PS=0.65U
+ simW=2.7e-07 fw=2.7e-07
MI3/avD1_3	I3/avC1#8	I3/avC3#10	GND!#13	GND!#4
+ nmos1v#20ivpcell#20gpdk090	L=0.1U	W=0.27U
+ AD=0.0438P	AS=0.0432P	PD=0.65U	PS=0.59U
+ simW=2.7e-07 fw=2.7e-07
MI3/avD1_4	BLB2#1	WL#18	I3/avC1#8	GND!#4
+ nmos1v#20ivpcell#20gpdk090	L=0.1U	W=0.12U
+ AD=0.0696P	AS=0.0438P	PD=1.16U	PS=0.65U
+ simW=1.2e-07 fw=1.2e-07
MI2/avD1_1	I2/avC3#6	WL#9	BL1#1	GND!#4
+ nmos1v#20ivpcell#20gpdk090	L=0.1U	W=0.12U
+ AD=0.0438P	AS=0.0696P	PD=0.65U	PS=1.16U
+ simW=1.2e-07 fw=1.2e-07
MI2/avD1_2	GND!#16	I2/avC1	I2/avC3#6	GND!#4
+ nmos1v#20ivpcell#20gpdk090	L=0.1U	W=0.27U
+ AD=0.0432P	AS=0.0438P	PD=0.59U	PS=0.65U
+ simW=2.7e-07 fw=2.7e-07
MI2/avD1_3	I2/avC1#8	I2/avC3#10	GND!#16	GND!#4
+ nmos1v#20ivpcell#20gpdk090	L=0.1U	W=0.27U
+ AD=0.0438P	AS=0.0432P	PD=0.65U	PS=0.59U
+ simW=2.7e-07 fw=2.7e-07
MI2/avD1_4	BLB1#1	WL#12	I2/avC1#8	GND!#4
+ nmos1v#20ivpcell#20gpdk090	L=0.1U	W=0.12U
+ AD=0.0696P	AS=0.0438P	PD=1.16U	PS=0.65U
+ simW=1.2e-07 fw=1.2e-07
MI1/avD7_1	VDD!#22	I1/avC1#3	I1/avC3#3	VDD!#13
+ pmos1v#20ivpcell#20gpdk090	L=0.1U	W=0.12U
+ AD=0.0408P	AS=0.0696P	PD=0.68U	PS=1.16U
+ simW=1.2e-07 fw=1.2e-07
MI1/avD7_2	I1/avC1#4	I1/avC3#9	VDD!#22	VDD!#13
+ pmos1v#20ivpcell#20gpdk090	L=0.1U	W=0.12U
+ AD=0.0696P	AS=0.0408P	PD=1.16U	PS=0.68U
+ simW=1.2e-07 fw=1.2e-07
MI4/avD7_1	VDD!#1	I4/avC1#3	I4/avC3#3	VDD!#4
+ pmos1v#20ivpcell#20gpdk090	L=0.1U	W=0.12U
+ AD=0.0408P	AS=0.0696P	PD=0.68U	PS=1.16U
+ simW=1.2e-07 fw=1.2e-07
MI4/avD7_2	I4/avC1#4	I4/avC3#9	VDD!#1	VDD!#4
+ pmos1v#20ivpcell#20gpdk090	L=0.1U	W=0.12U
+ AD=0.0696P	AS=0.0408P	PD=1.16U	PS=0.68U
+ simW=1.2e-07 fw=1.2e-07
MI3/avD7_1	VDD!#16	I3/avC1#3	I3/avC3#3	VDD!#7
+ pmos1v#20ivpcell#20gpdk090	L=0.1U	W=0.12U
+ AD=0.0408P	AS=0.0696P	PD=0.68U	PS=1.16U
+ simW=1.2e-07 fw=1.2e-07
MI3/avD7_2	I3/avC1#4	I3/avC3#9	VDD!#16	VDD!#7
+ pmos1v#20ivpcell#20gpdk090	L=0.1U	W=0.12U
+ AD=0.0696P	AS=0.0408P	PD=1.16U	PS=0.68U
+ simW=1.2e-07 fw=1.2e-07
MI2/avD7_1	VDD!#19	I2/avC1#3	I2/avC3#3	VDD!#10
+ pmos1v#20ivpcell#20gpdk090	L=0.1U	W=0.12U
+ AD=0.0408P	AS=0.0696P	PD=0.68U	PS=1.16U
+ simW=1.2e-07 fw=1.2e-07
MI2/avD7_2	I2/avC1#4	I2/avC3#9	VDD!#19	VDD!#10
+ pmos1v#20ivpcell#20gpdk090	L=0.1U	W=0.12U
+ AD=0.0696P	AS=0.0408P	PD=1.16U	PS=0.68U
+ simW=1.2e-07 fw=1.2e-07
*
*
*       RESISTOR AND CAP/DIODE CARDS
*
Rg1	BL0	BL0#6	3.434E-02	$X=-3.41 $Y=-4.2245
Rg2	BL0#6	BL0#5	    0.1629	$X=-3.41 $Y=-3.8355
Rg3	BLB0	BLB0#5	3.433E-02	$X=-1.51 $Y=-4.185
Rg4	BLB0#5	BLB0#6	    1.5628	$X=-1.51 $Y=-3.9895
Rg5	BL1	BL1#5	    0.1907	$X=-1.065 $Y=-4.0275
Rg6	BLB1	BLB1#5	3.213E-02	$X=0.835 $Y=-4.188
Rg7	BLB1#5	BLB1#6	    1.5628	$X=0.835 $Y=-3.9945
Rg8	BL2	BL2#6	3.214E-02	$X=1.2795 $Y=-4.2245
Rg9	BL2#6	BL2#5	    0.1629	$X=1.28 $Y=-3.8405
Rg10	BLB2	BLB2#5	    1.5628	$X=3.18 $Y=-3.9945
Rg11	BL3	BL3#5	    0.1800	$X=3.625 $Y=-4.015
Rg12	BLB3	BLB3#5	    0.1628	$X=5.525 $Y=-3.9945
Rh1	BL0#5	BL0#4	    2.8000	$X=-3.3495 $Y=-3.7045
Rh2	BLB0#4	BLB0#6	    1.4000	$X=-1.5695 $Y=-3.7045
Rh3	BL1#5	BL1#4	    2.8000	$X=-1.0045 $Y=-3.7095
Rh4	BLB1#4	BLB1#6	    1.4000	$X=0.7745 $Y=-3.7095
Rh5	BL2#5	BL2#4	    2.8000	$X=1.3395 $Y=-3.7095
Rh6	BLB2#4	BLB2#5	    1.4000	$X=3.1195 $Y=-3.7095
Rh7	BL3#5	BL3#4	    2.8000	$X=3.6845 $Y=-3.7095
Rh8	BLB3#4	BLB3#5	    2.8000	$X=5.4645 $Y=-3.7095
Rh9	WL#24	WL#25	    0.5274	$X=5.295 $Y=-3.295
Rh10	WL#25	WL#20	    0.1498	$X=3.8555 $Y=-3.295
Rh11	WL#20	WL#17	    0.2250	$X=3.4025 $Y=-3.295
Rh12	WL#17	WL#26	    0.5274	$X=2.95 $Y=-3.295
Rh13	WL#26	WL#14	    0.1498	$X=1.5105 $Y=-3.295
Rh14	WL#14	WL#11	    0.2250	$X=1.0575 $Y=-3.295
Rh15	WL#11	WL#27	    0.5271	$X=0.605 $Y=-3.295
Rh16	WL#27	WL#8	    0.1500	$X=-0.8345 $Y=-3.295
Rh17	WL#8	WL#5	    0.2237	$X=-1.1675 $Y=-3.295
Rh18	WL#5	WL#28	    0.5271	$X=-1.74 $Y=-3.29
Rh19	WL#28	WL#2	    0.1500	$X=-3.1795 $Y=-3.29
Rh20	WL#2	WL	    0.1005	$X=-3.5215 $Y=-3.29
Ri2	BL0#2	BL0#4	1.867E-02	$X=-3.38 $Y=-3.705
Ri3	BL0#1	BL0#2	   15.0000	$X=-3.42 $Y=-3.695
Ri4	WL#1	WL#2	   11.4000	$X=-3.3095 $Y=-3.2895
Ri5	I1/avC3	I1/avC3#2	   10.4221	$X=-2.66 $Y=-2.925
Ri6	I1/avC3#2	I1/avC3#4	    0.2572	$X=-3 $Y=-2.7575
Ri8	I1/avC3#2	I1/avC3#7	    0.4889	$X=-3 $Y=-3.2725
Ri10	I1/avC3#3	I1/avC3#4	   15.0000	$X=-3 $Y=-2.53
Ri11	I1/avC3#6	I1/avC3#7	   15.0000	$X=-2.88 $Y=-3.695
Ri13	I1/avC1#5	I1/avC1#7	    0.5036	$X=-1.92 $Y=-2.9395
Ri14	I1/avC1#7	I1/avC1#2	   10.4206	$X=-2.26 $Y=-3.29
Ri15	I1/avC1#7	I1/avC1#9	    0.2486	$X=-1.92 $Y=-3.455
Ri17	I1/avC1#4	I1/avC1#5	   15.0000	$X=-1.92 $Y=-2.53
Ri18	I1/avC1#8	I1/avC1#9	   15.0000	$X=-2.04 $Y=-3.695
Ri19	WL#4	WL#5	   11.4000	$X=-1.6095 $Y=-3.2895
Ri21	BLB0#4	BLB0#2	1.867E-02	$X=-1.54 $Y=-3.705
Ri22	BLB0#1	BLB0#2	   15.0000	$X=-1.5 $Y=-3.695
Ri24	BL1#2	BL1#4	1.867E-02	$X=-1.035 $Y=-3.71
Ri25	BL1#1	BL1#2	   15.0000	$X=-1.075 $Y=-3.7
Ri26	WL#7	WL#8	   11.4000	$X=-0.9645 $Y=-3.2945
Ri27	I2/avC3	I2/avC3#2	   10.4221	$X=-0.315 $Y=-2.93
Ri28	I2/avC3#2	I2/avC3#4	    0.2572	$X=-0.655 $Y=-2.7625
Ri30	I2/avC3#2	I2/avC3#7	    0.4889	$X=-0.655 $Y=-3.2775
Ri32	I2/avC3#3	I2/avC3#4	   15.0000	$X=-0.655 $Y=-2.535
Ri33	I2/avC3#6	I2/avC3#7	   15.0000	$X=-0.535 $Y=-3.7
Ri35	I2/avC1#5	I2/avC1#7	    0.5036	$X=0.425 $Y=-2.9445
Ri36	I2/avC1#7	I2/avC1#2	   10.4206	$X=0.085 $Y=-3.295
Ri37	I2/avC1#7	I2/avC1#9	    0.2486	$X=0.425 $Y=-3.46
Ri39	I2/avC1#4	I2/avC1#5	   15.0000	$X=0.425 $Y=-2.535
Ri40	I2/avC1#8	I2/avC1#9	   15.0000	$X=0.305 $Y=-3.7
Ri41	WL#10	WL#11	   11.4000	$X=0.7345 $Y=-3.2945
Ri43	BLB1#4	BLB1#2	1.867E-02	$X=0.805 $Y=-3.71
Ri44	BLB1#1	BLB1#2	   15.0000	$X=0.845 $Y=-3.7
Ri46	BL2#2	BL2#4	1.867E-02	$X=1.31 $Y=-3.71
Ri47	BL2#1	BL2#2	   15.0000	$X=1.27 $Y=-3.7
Ri48	WL#13	WL#14	   11.4000	$X=1.3795 $Y=-3.2945
Ri49	I3/avC3	I3/avC3#2	   10.4221	$X=2.03 $Y=-2.93
Ri50	I3/avC3#2	I3/avC3#4	    0.2572	$X=1.69 $Y=-2.7625
Ri52	I3/avC3#2	I3/avC3#7	    0.4889	$X=1.69 $Y=-3.2775
Ri54	I3/avC3#3	I3/avC3#4	   15.0000	$X=1.69 $Y=-2.535
Ri55	I3/avC3#6	I3/avC3#7	   15.0000	$X=1.81 $Y=-3.7
Ri57	I3/avC1#5	I3/avC1#7	    0.5036	$X=2.77 $Y=-2.9445
Ri58	I3/avC1#7	I3/avC1#2	   10.4206	$X=2.43 $Y=-3.295
Ri59	I3/avC1#7	I3/avC1#9	    0.2486	$X=2.77 $Y=-3.46
Ri61	I3/avC1#4	I3/avC1#5	   15.0000	$X=2.77 $Y=-2.535
Ri62	I3/avC1#8	I3/avC1#9	   15.0000	$X=2.65 $Y=-3.7
Ri63	WL#16	WL#17	   11.4000	$X=3.0795 $Y=-3.2945
Ri65	BLB2#4	BLB2#2	1.867E-02	$X=3.15 $Y=-3.71
Ri66	BLB2#1	BLB2#2	   15.0000	$X=3.19 $Y=-3.7
Ri68	BL3#2	BL3#4	1.867E-02	$X=3.655 $Y=-3.71
Ri69	BL3#1	BL3#2	   15.0000	$X=3.615 $Y=-3.7
Ri70	WL#19	WL#20	   11.4000	$X=3.7245 $Y=-3.2945
Ri71	I4/avC3	I4/avC3#2	   10.4221	$X=4.375 $Y=-2.93
Ri72	I4/avC3#2	I4/avC3#4	    0.2572	$X=4.035 $Y=-2.7625
Ri74	I4/avC3#2	I4/avC3#7	    0.4889	$X=4.035 $Y=-3.2775
Ri76	I4/avC3#3	I4/avC3#4	   15.0000	$X=4.035 $Y=-2.535
Ri77	I4/avC3#6	I4/avC3#7	   15.0000	$X=4.155 $Y=-3.7
Ri79	I4/avC1#5	I4/avC1#7	    0.5036	$X=5.115 $Y=-2.9445
Ri80	I4/avC1#7	I4/avC1#2	   10.4206	$X=4.775 $Y=-3.295
Ri81	I4/avC1#7	I4/avC1#9	    0.2486	$X=5.115 $Y=-3.46
Ri83	I4/avC1#4	I4/avC1#5	   15.0000	$X=5.115 $Y=-2.535
Ri84	I4/avC1#8	I4/avC1#9	   15.0000	$X=4.995 $Y=-3.7
Ri85	WL#23	WL#24	    1.4000	$X=5.4245 $Y=-3.2945
Ri87	BLB3#4	BLB3#2	1.867E-02	$X=5.495 $Y=-3.71
Ri88	BLB3#1	BLB3#2	   15.0000	$X=5.535 $Y=-3.7
Ri90	VDD!#2	VDD!#5	    0.1787	$X=4.575 $Y=-2.3555
Ri91	VDD!#5	VDD!#6	    0.1374	$X=4.515 $Y=-1.995
Ri92	VDD!#6	VDD!#8	    0.1753	$X=2.29 $Y=-1.995
Ri93	VDD!#8	VDD!#9	    0.1374	$X=2.17 $Y=-1.995
Ri94	VDD!#9	VDD!#11	    0.1753	$X=-0.055 $Y=-1.995
Ri95	VDD!#11	VDD!#12	    0.1373	$X=-0.175 $Y=-1.995
Ri96	VDD!#12	VDD!#14	    0.1753	$X=-1.8675 $Y=-1.99
Ri97	VDD!#14	VDD!#15	    0.1373	$X=-2.8795 $Y=-1.99
Ri98	VDD!#15	VDD!	6.600E-03	$X=-3.49 $Y=-1.86
Ri99	VDD!#8	VDD!#17	    0.3600	$X=2.23 $Y=-2.355
Ri101	VDD!#11	VDD!#20	    0.3600	$X=-0.115 $Y=-2.355
Ri103	VDD!#14	VDD!#23	    0.3600	$X=-2.46 $Y=-2.35
Ri105	VDD!#1	VDD!#2	   15.0000	$X=4.575 $Y=-2.535
Ri106	VDD!#4	VDD!#5	    3.0000	$X=4.575 $Y=-1.995
Ri107	VDD!#7	VDD!#8	    3.0000	$X=2.23 $Y=-1.995
Ri108	VDD!#10	VDD!#11	    3.0000	$X=-0.115 $Y=-1.995
Ri109	VDD!#13	VDD!#14	    3.0000	$X=-2.46 $Y=-1.99
Ri110	VDD!#16	VDD!#17	   15.0000	$X=2.23 $Y=-2.535
Ri111	VDD!#19	VDD!#20	   15.0000	$X=-0.115 $Y=-2.535
Ri112	VDD!#22	VDD!#23	   15.0000	$X=-2.46 $Y=-2.53
Ri114	GND!#2	GND!#5	    0.2288	$X=4.575 $Y=-3.9245
Ri115	GND!#5	GND!#6	    0.1447	$X=4.515 $Y=-4.315
Ri116	GND!#6	GND!#7	    0.1679	$X=2.29 $Y=-4.315
Ri117	GND!#7	GND!#8	    0.1447	$X=2.17 $Y=-4.315
Ri118	GND!#8	GND!#9	    0.1679	$X=-0.055 $Y=-4.315
Ri119	GND!#9	GND!#10	    0.1447	$X=-0.175 $Y=-4.315
Ri120	GND!#10	GND!#11	    0.1679	$X=-1.8675 $Y=-4.31
Ri121	GND!#11	GND!#12	    0.1447	$X=-2.52 $Y=-4.31
Ri122	GND!#12	GND!	2.533E-03	$X=-3.545 $Y=-4.415
Ri123	GND!#7	GND!#14	    0.4100	$X=2.23 $Y=-3.925
Ri125	GND!#9	GND!#17	    0.4100	$X=-0.115 $Y=-3.925
Ri127	GND!#11	GND!#20	    0.4100	$X=-2.46 $Y=-3.92
Ri129	GND!#1	GND!#2	   15.0000	$X=4.575 $Y=-3.7
Ri130	GND!#4	GND!#5	    3.0000	$X=4.575 $Y=-4.315
Ri131	GND!#4	GND!#7	    3.0000	$X=2.23 $Y=-4.315
Ri132	GND!#4	GND!#9	    3.0000	$X=-0.115 $Y=-4.315
Ri133	GND!#4	GND!#11	    3.0000	$X=-2.46 $Y=-4.31
Ri134	GND!#13	GND!#14	   15.0000	$X=2.23 $Y=-3.7
Ri135	GND!#16	GND!#17	   15.0000	$X=-0.115 $Y=-3.7
Ri136	GND!#19	GND!#20	   15.0000	$X=-2.46 $Y=-3.695
Rj1	WL#3	WL#1	   32.3639	$X=-3.15 $Y=-3.5225
Rj2	I1/avC1	I1/avC1#2	   25.2766	$X=-2.67 $Y=-3.455
Rj3	I1/avC1#2	I1/avC1#3	   59.5054	$X=-2.67 $Y=-3.0375
Rj4	I1/avC3#9	I1/avC3	   36.3679	$X=-2.19 $Y=-2.7275
Rj5	I1/avC3	I1/avC3#10	   49.7766	$X=-2.25 $Y=-3.3325
Rj6	WL#6	WL#4	   32.3639	$X=-1.77 $Y=-3.5225
Rj7	WL#9	WL#7	   32.3639	$X=-0.805 $Y=-3.5275
Rj8	I2/avC1	I2/avC1#2	   25.2766	$X=-0.325 $Y=-3.46
Rj9	I2/avC1#2	I2/avC1#3	   59.5054	$X=-0.325 $Y=-3.0425
Rj10	I2/avC3#9	I2/avC3	   36.3679	$X=0.155 $Y=-2.7325
Rj11	I2/avC3	I2/avC3#10	   49.7766	$X=0.095 $Y=-3.3375
Rj12	WL#12	WL#10	   32.3639	$X=0.575 $Y=-3.5275
Rj13	WL#15	WL#13	   32.3639	$X=1.54 $Y=-3.5275
Rj14	I3/avC1	I3/avC1#2	   25.2766	$X=2.02 $Y=-3.46
Rj15	I3/avC1#2	I3/avC1#3	   59.5054	$X=2.02 $Y=-3.0425
Rj16	I3/avC3#9	I3/avC3	   36.3679	$X=2.5 $Y=-2.7325
Rj17	I3/avC3	I3/avC3#10	   49.7766	$X=2.44 $Y=-3.3375
Rj18	WL#18	WL#16	   32.3639	$X=2.92 $Y=-3.5275
Rj19	WL#21	WL#19	   32.3639	$X=3.885 $Y=-3.5275
Rj20	I4/avC1	I4/avC1#2	   25.2766	$X=4.365 $Y=-3.46
Rj21	I4/avC1#2	I4/avC1#3	   59.5054	$X=4.365 $Y=-3.0425
Rj22	I4/avC3#9	I4/avC3	   36.3679	$X=4.845 $Y=-2.7325
Rj23	I4/avC3	I4/avC3#10	   49.7766	$X=4.785 $Y=-3.3375
Rj24	WL#22	WL#23	   42.3639	$X=5.265 $Y=-3.5275
*
*       CAPACITOR CARDS
*
*
C1	VDD!	GND!	1.142E-16	$X=-3.2805 $Y=-1.991
C2	WL	GND!	2.135E-17	$X=-3.565 $Y=-3.292
C3	BL0	GND!	2.100E-17	$X=-3.412 $Y=-4.2695
C4	BL1	GND!	4.089E-17	$X=-1.067 $Y=-4.1735
C5	BL2	GND!	1.695E-17	$X=1.277 $Y=-4.272
C6	BL3	GND!	2.957E-17	$X=3.622 $Y=-4.167
C7	BLB0	GND!	1.980E-17	$X=-1.512 $Y=-4.25
C8	BLB1	GND!	2.209E-17	$X=0.832 $Y=-4.2535
C9	BLB2	GND!	2.728E-17	$X=3.177 $Y=-4.1575
C10	BLB3	GND!	2.947E-17	$X=5.522 $Y=-4.1575
C11	I1/avC3	GND!	1.769E-16	$X=-2.267 $Y=-3.043
C12	I1/avC1	GND!	5.728E-17	$X=-2.672 $Y=-3.735
C13	I4/avC3	GND!	1.787E-16	$X=4.766 $Y=-3.048
C14	I4/avC1	GND!	5.735E-17	$X=4.362 $Y=-3.74
C15	I3/avC3	GND!	1.772E-16	$X=2.4215 $Y=-3.048
C16	I3/avC1	GND!	5.733E-17	$X=2.017 $Y=-3.74
C17	I2/avC3	GND!	1.772E-16	$X=0.077 $Y=-3.048
C18	I2/avC1	GND!	5.605E-17	$X=-0.3275 $Y=-3.74
C19	I1/avC1#3	GND!	4.712E-17	$X=-2.732 $Y=-2.547
C20	I1/avC3#9	GND!	4.223E-17	$X=-2.192 $Y=-2.51
C21	I2/avC1#3	GND!	4.858E-17	$X=-0.3875 $Y=-2.552
C22	I2/avC3#9	GND!	4.088E-17	$X=0.152 $Y=-2.515
C23	I3/avC1#3	GND!	4.846E-17	$X=1.957 $Y=-2.552
C24	I3/avC3#9	GND!	4.085E-17	$X=2.497 $Y=-2.515
C25	I4/avC1#3	GND!	4.842E-17	$X=4.302 $Y=-2.552
C26	I4/avC3#9	GND!	4.088E-17	$X=4.842 $Y=-2.515
C27	WL#3	GND!	4.828E-17	$X=-3.152 $Y=-3.731
C28	I1/avC3#10	GND!	7.358E-17	$X=-2.252 $Y=-3.673
C29	WL#6	GND!	4.861E-17	$X=-1.772 $Y=-3.731
C30	WL#9	GND!	5.034E-17	$X=-0.8075 $Y=-3.736
C31	I2/avC3#10	GND!	7.342E-17	$X=0.092 $Y=-3.678
C32	WL#12	GND!	5.065E-17	$X=0.572 $Y=-3.736
C33	WL#15	GND!	5.040E-17	$X=1.537 $Y=-3.736
C34	I3/avC3#10	GND!	7.229E-17	$X=2.437 $Y=-3.678
C35	WL#18	GND!	5.053E-17	$X=2.917 $Y=-3.736
C36	WL#21	GND!	5.042E-17	$X=3.882 $Y=-3.736
C37	I4/avC3#10	GND!	7.366E-17	$X=4.782 $Y=-3.678
C38	WL#22	GND!	4.894E-17	$X=5.262 $Y=-3.736
C39	BL0#5	GND!	1.842E-16	$X=-3.3815 $Y=-3.3235
C40	BLB0#6	GND!	2.040E-16	$X=-1.512 $Y=-2.991
C41	BL1#5	GND!	2.714E-16	$X=-1.037 $Y=-3.375
C42	BLB1#6	GND!	1.995E-16	$X=0.8315 $Y=-2.996
C43	BL2#5	GND!	2.547E-16	$X=1.3065 $Y=-3.3285
C44	BLB2#5	GND!	2.003E-16	$X=3.176 $Y=-2.996
C45	BL3#5	GND!	2.669E-16	$X=3.6505 $Y=-3.372
C46	BLB3#5	GND!	1.360E-16	$X=5.5205 $Y=-2.996
C47	WL#1	GND!	4.950E-17	$X=-3.322 $Y=-3.292
C48	I1/avC1#2	GND!	1.957E-16	$X=-2.682 $Y=-3.1805
C49	WL#4	GND!	5.343E-17	$X=-1.602 $Y=-3.292
C50	WL#7	GND!	5.260E-17	$X=-0.9775 $Y=-3.297
C51	I2/avC1#2	GND!	1.976E-16	$X=-0.3375 $Y=-3.1855
C52	WL#10	GND!	5.152E-17	$X=0.742 $Y=-3.297
C53	WL#13	GND!	5.194E-17	$X=1.367 $Y=-3.297
C54	I3/avC1#2	GND!	1.970E-16	$X=2.0065 $Y=-3.1855
C55	WL#16	GND!	5.152E-17	$X=3.087 $Y=-3.297
C56	WL#19	GND!	5.194E-17	$X=3.712 $Y=-3.297
C57	I4/avC1#2	GND!	1.972E-16	$X=4.351 $Y=-3.1855
C58	WL#23	GND!	4.898E-17	$X=5.432 $Y=-3.297
C59	BL0#4	GND!	9.342E-17	$X=-3.352 $Y=-3.727
C60	WL#2	GND!	1.496E-16	$X=-3.312 $Y=-3.2815
C61	WL#5	GND!	1.461E-16	$X=-1.6115 $Y=-3.2815
C62	BLB0#4	GND!	1.694E-16	$X=-1.572 $Y=-3.73
C63	BL1#4	GND!	1.098E-16	$X=-1.0075 $Y=-3.732
C64	WL#8	GND!	1.501E-16	$X=-1.068 $Y=-3.2865
C65	WL#11	GND!	1.507E-16	$X=0.732 $Y=-3.2865
C66	BLB1#4	GND!	1.705E-16	$X=0.772 $Y=-3.735
C67	BL2#4	GND!	1.037E-16	$X=1.337 $Y=-3.732
C68	WL#14	GND!	1.495E-16	$X=1.377 $Y=-3.2865
C69	WL#17	GND!	1.507E-16	$X=3.0765 $Y=-3.2865
C70	BLB2#4	GND!	1.712E-16	$X=3.1165 $Y=-3.735
C71	BL3#4	GND!	1.037E-16	$X=3.682 $Y=-3.732
C72	WL#20	GND!	1.498E-16	$X=3.7215 $Y=-3.2865
C73	WL#24	GND!	1.737E-16	$X=5.421 $Y=-3.2865
C74	BLB3#4	GND!	1.460E-16	$X=5.461 $Y=-3.735
C75	VDD!#13	GND!	9.699E-17	$X=-2.459 $Y=-2.088
C76	VDD!#10	GND!	2.247E-16	$X=0.269 $Y=-2.0815
C77	VDD!#7	GND!	2.241E-16	$X=2.607 $Y=-2.0815
C78	VDD!#4	GND!	1.705E-16	$X=4.772 $Y=-2.083
C79	BL0#6	GND!	1.600E-17	$X=-3.412 $Y=-4.032
C80	BLB0#5	GND!	1.320E-17	$X=-1.512 $Y=-4.09
C81	BLB1#5	GND!	1.368E-17	$X=0.832 $Y=-4.0935
C82	BL2#6	GND!	2.994E-17	$X=1.277 $Y=-4.0345
C83	WL#28	GND!	9.814E-17	$X=-2.4615 $Y=-3.2915
C84	WL#27	GND!	1.002E-16	$X=-0.117 $Y=-3.2965
C85	WL#26	GND!	1.002E-16	$X=2.2265 $Y=-3.2965
C86	WL#25	GND!	1.002E-16	$X=4.571 $Y=-3.2965
C87	VDD!#12	GND!	1.513E-16	$X=-0.71 $Y=-1.995
C88	I1/avC3#2	GND!	8.345E-17	$X=-3.002 $Y=-3.017
C89	I1/avC3#4	GND!	4.435E-17	$X=-3.002 $Y=-2.5855
C90	I1/avC3#7	GND!	1.126E-16	$X=-3.002 $Y=-3.553
C91	I1/avC1#5	GND!	6.695E-17	$X=-1.922 $Y=-2.6765
C92	I1/avC1#7	GND!	1.125E-16	$X=-1.922 $Y=-3.199
C93	I1/avC1#9	GND!	7.901E-17	$X=-1.922 $Y=-3.6445
C94	I2/avC3#2	GND!	8.628E-17	$X=-0.6575 $Y=-3.022
C95	I2/avC3#4	GND!	4.529E-17	$X=-0.6575 $Y=-2.5905
C96	I2/avC3#7	GND!	1.171E-16	$X=-0.6575 $Y=-3.558
C97	I2/avC1#5	GND!	6.626E-17	$X=0.422 $Y=-2.6815
C98	I2/avC1#7	GND!	1.113E-16	$X=0.422 $Y=-3.204
C99	I2/avC1#9	GND!	7.868E-17	$X=0.422 $Y=-3.6495
C100	I3/avC3#2	GND!	8.489E-17	$X=1.687 $Y=-3.022
C101	I3/avC3#4	GND!	4.490E-17	$X=1.687 $Y=-2.5905
C102	I3/avC3#7	GND!	1.161E-16	$X=1.687 $Y=-3.558
C103	I3/avC1#5	GND!	6.626E-17	$X=2.767 $Y=-2.6815
C104	I3/avC1#7	GND!	1.113E-16	$X=2.767 $Y=-3.204
C105	I3/avC1#9	GND!	7.868E-17	$X=2.767 $Y=-3.6495
C106	I4/avC3#2	GND!	8.507E-17	$X=4.032 $Y=-3.022
C107	I4/avC3#4	GND!	4.513E-17	$X=4.032 $Y=-2.5905
C108	I4/avC3#7	GND!	1.165E-16	$X=4.032 $Y=-3.558
C109	I4/avC1#5	GND!	6.533E-17	$X=5.112 $Y=-2.6815
C110	I4/avC1#7	GND!	1.117E-16	$X=5.1115 $Y=-3.204
C111	I4/avC1#9	GND!	7.573E-17	$X=5.112 $Y=-3.6495
C112	VDD!#2	GND!	3.999E-17	$X=4.572 $Y=-2.5075
C113	VDD!#17	GND!	3.985E-17	$X=2.227 $Y=-2.507
C114	VDD!#20	GND!	3.988E-17	$X=-0.1175 $Y=-2.507
C115	VDD!#23	GND!	4.033E-17	$X=-2.462 $Y=-2.502
*
*
.ENDS sram_row
*
